Version 4
SHEET 1 1344 808
WIRE 144 0 80 0
WIRE 208 0 144 0
WIRE 144 64 144 0
WIRE 144 64 96 64
WIRE 192 64 144 64
WIRE 192 144 144 144
WIRE 240 144 192 144
WIRE 192 160 192 144
WIRE 96 176 96 160
WIRE 96 176 -48 176
WIRE -48 208 -48 176
WIRE 96 208 96 176
WIRE 128 208 96 208
WIRE 240 208 240 144
WIRE 48 272 -48 272
WIRE 48 288 48 272
WIRE 96 288 48 288
WIRE 192 288 192 256
WIRE 192 288 96 288
WIRE 240 288 192 288
WIRE 240 336 240 288
WIRE 288 336 240 336
WIRE 640 336 480 336
WIRE 640 352 640 336
WIRE 208 432 160 432
WIRE 288 432 208 432
WIRE 496 432 480 432
WIRE 528 432 496 432
WIRE 112 496 96 496
FLAG 496 512 GND_ISO
FLAG 640 432 GND_ISO
FLAG 528 432 Vout
FLAG 80 -144 GND_ISO_HV
FLAG 208 -144 0
FLAG 160 576 0
FLAG 208 432 GND_ISO_HV
FLAG 112 448 0
FLAG 96 576 0
SYMBOL npn 128 160 R0
WINDOW 0 -325 88 Invisible 2
WINDOW 3 375 248 Invisible 2
SYMATTR InstName Q1
SYMATTR Value BC848B
SYMBOL res 80 192 R0
WINDOW 0 285 294 Invisible 2
WINDOW 3 -53 60 Left 2
SYMATTR InstName R1
SYMATTR Value 2
SYMBOL nmos 144 64 M0
WINDOW 0 337 -4 Invisible 2
WINDOW 3 341 123 Invisible 2
SYMATTR InstName M1
SYMATTR Value STW11NM80
SYMBOL res 176 48 R0
WINDOW 0 389 60 Invisible 2
WINDOW 3 42 51 Left 2
SYMATTR InstName R2
SYMATTR Value 10Meg
SYMBOL res 224 192 R0
WINDOW 0 385 -24 Invisible 2
WINDOW 3 39 52 Left 2
SYMATTR InstName R3
SYMATTR Value 10Meg
SYMBOL Optos\\PC817A 384 384 R0
SYMATTR InstName U1
SYMBOL res 480 416 R0
SYMATTR InstName R4
SYMATTR Value 10k
SYMBOL voltage 640 336 R0
WINDOW 0 31 24 Left 2
WINDOW 3 39 53 Left 2
WINDOW 123 0 0 Left 0
WINDOW 39 0 0 Left 0
SYMATTR InstName V2
SYMATTR Value 5
SYMBOL voltage 208 -48 R180
WINDOW 0 -86 18 Left 2
WINDOW 3 -81 48 Left 2
WINDOW 123 0 0 Left 0
SYMATTR InstName Vts1
SYMATTR Value 600
SYMATTR SpiceLine Rser=100
SYMBOL voltage 80 -48 R180
WINDOW 0 -86 18 Left 2
WINDOW 3 -81 48 Left 2
WINDOW 123 0 0 Left 0
SYMATTR InstName Vts2
SYMATTR Value 5
SYMATTR SpiceLine Rser=1m
SYMBOL diode 64 -64 R0
SYMATTR InstName D1
SYMATTR Value RFU02VS8S
SYMBOL diode 192 -64 R0
SYMATTR InstName D2
SYMATTR Value RFU02VS8S
SYMBOL cap 144 512 R0
SYMATTR InstName C1
SYMATTR Value 500µ
SYMBOL sw 160 416 R0
WINDOW 3 24 44 Left 2
SYMATTR InstName S1
SYMATTR Value Switch1
SYMBOL voltage 96 480 R0
WINDOW 0 31 24 Left 2
WINDOW 3 39 53 Left 2
WINDOW 123 0 0 Left 0
WINDOW 39 0 0 Left 0
SYMATTR InstName V1
SYMATTR Value PWL(0 0 1 0 1.000001 5)
SYMBOL cap -64 208 R0
SYMATTR InstName C2
SYMATTR Value 100n
TEXT 696 200 Left 2 !.tran 0 3 0 startup
TEXT 760 280 Left 2 !.model Switch1 SW(Ron=1 Roff=1Meg Vt=2.5 Vh=.2)
